44

C      4.901243    2.336638    0.255723
C      3.650010    2.931033    0.312459
C      2.497499    2.160472    0.205546
C      2.565080    0.749789    0.081203
C      3.855778    0.144786    0.007902
C      3.949784   -1.252742   -0.095028
C      2.816533   -2.062186   -0.199978
C      3.013910   -3.554785   -0.337240
C      1.529574   -1.476919   -0.150841
C      0.372405   -2.279350   -0.198384
C     -0.907093   -1.717370   -0.132282
C     -2.018130   -2.556317   -0.040539
C     -3.295936   -2.039968    0.175684
N     -4.360885   -2.974602    0.419292
C     -3.500453   -0.634928    0.130371
C     -4.790414   -0.082290    0.283237
C     -3.954492    2.119728   -0.214784
C     -2.670487    1.604012   -0.435807
C     -1.706776    2.518855   -1.157715
C     -2.391276    0.235101   -0.117226
C     -1.070394   -0.319715   -0.083930
C      0.084741    0.464237    0.110981
C      1.393144   -0.071253    0.009694
H      5.779871    2.968395    0.313287
H      3.571617    4.005618    0.420256
H      1.571617    2.709129    0.212835
H      4.913848   -1.738587   -0.075274
H      2.589446   -4.073511    0.547985
H      4.087453   -3.830979   -0.409272
H      2.515993   -3.918807   -1.260554
H      0.451933   -3.357237   -0.257575
H     -1.880647   -3.632190   -0.046934
H     -4.212204   -3.994420    0.248401
H     -5.242556   -2.720449    0.911325
H     -5.645107   -0.707010    0.480528
H     -4.141038    3.171440   -0.401006
H     -2.251735    3.157917   -1.885697
H     -0.968398    1.947177   -1.756473
H     -1.199336    3.191997   -0.435778
H     -0.057639    1.472252    0.437153
C      5.027895    0.955912    0.069936
At     6.401478    0.425395   -0.091886
C     -5.012517    1.292876    0.165861
At    -6.368948    1.854212    0.372352
