20
xyan11@uic.edu
  C 44.573927 52.949829 2.39224
 Cu 45.896652 50.514763 2.42850
  C 48.403252 50.554483 3.58890
  C 48.491762 50.648183 1.29968
  C 44.595282 50.637383 4.87227
  C 44.567812 50.384163 0.00000
  C 44.589152 48.071723 2.48002
  N 47.746602 50.520453 2.41776
  O 45.682542 50.442063 0.49061
  O 45.704612 50.586233 4.36875
  O 45.687342 52.453543 2.36611
  O 45.699792 48.574743 2.49324
 Cu 43.266403 50.506813 2.44376
  C 40.754723 51.556793 1.95621
  C 40.676983 49.575993 3.10054
  N 41.416443 50.501223 2.45439
  O 43.463263 52.446833 2.37901
  O 43.480503 50.579513 4.38165
  O 43.458443 50.435353 0.50351
  O 43.475713 48.568033 2.50614
