38

O      1.831334    3.291527   -0.226576
C      1.844710    1.913829    0.017502
C      3.046660    1.299174    0.443867
C      4.303517    2.131269    0.603684
C      3.057250   -0.081566    0.705721
C      4.260005   -0.775373    1.109980
N      5.261226   -1.356257    1.447028
Fr     6.726370   -2.202559    1.939539
C      1.889029   -0.827834    0.583536
C      0.662396   -0.243501    0.195720
C      0.649547    1.144755   -0.151067
C     -0.558352    1.712349   -0.660621
C     -0.681272    3.146332   -1.129849
C     -1.706897    0.922841   -0.770365
C     -1.729754   -0.422902   -0.381662
C     -2.927256   -1.186625   -0.488604
C     -4.144212   -0.603085   -1.021881
N     -5.155760   -0.119348   -1.464751
Fr    -6.632882    0.590070   -2.112513
C     -2.947078   -2.531637   -0.069131
C     -4.200054   -3.366499   -0.164049
C     -1.791118   -3.097070    0.467673
C     -0.616182   -2.359964    0.570250
C     -0.543502   -1.016109    0.125801
H      2.630112    3.903178   -0.126401
H      4.566762    2.601346   -0.367231
H      5.186153    1.548041    0.931586
H      4.134774    2.920051    1.366701
H      1.983877   -1.883757    0.772557
H      0.068423    3.355519   -1.921452
H     -1.674578    3.363245   -1.577631
H     -0.560194    3.839656   -0.271445
H     -2.606080    1.381430   -1.161223
H     -4.027400   -4.411177    0.172045
H     -4.993920   -2.923333    0.473386
H     -4.551769   -3.399096   -1.216830
H     -1.795621   -4.121958    0.819265
H      0.207672   -2.873874    1.033456
