54

O     -1.488750   -3.589933   -1.179665
C     -1.658137   -2.302925   -0.658716
C     -2.967875   -1.821529   -0.423361
C     -4.154765   -2.750098   -0.573092
C     -2.045980    0.330887    0.201506
C     -0.723667   -0.155243    0.106834
C     -0.518590   -1.483429   -0.382107
C      0.820298   -1.938489   -0.586095
C      1.171239   -3.324162   -1.083739
C      1.894064   -1.079996   -0.329428
C      1.712987    0.211547    0.182125
C      2.640272    2.319773    1.032524
C      3.801932    3.229302    1.346390
C      1.348589    2.734680    1.355021
C      0.249026    1.931477    1.073407
C      0.396458    0.670011    0.446769
H     -2.242021   -4.176493   -1.513349
H     -3.937761   -3.733315   -0.105679
H     -5.057992   -2.371815   -0.052987
H     -4.389669   -2.889042   -1.649106
H     -2.254565    1.362214    0.432903
H      2.268202   -3.492446   -1.134500
H      0.779441   -3.470458   -2.112037
H      0.769808   -4.092084   -0.389892
H      2.895647   -1.447480   -0.510766
H      4.460669    3.329498    0.458135
H      3.460576    4.248246    1.628016
H      4.386445    2.809731    2.191583
H      1.185160    3.693046    1.833390
H     -0.702286    2.318298    1.397224
C     -3.153978   -0.474711   -0.059067
C     -4.500666    0.140555    0.033219
C     -4.933592    0.718512    1.238071
C     -6.196211    1.313200    1.320674
N     -7.032834    1.342607    0.199653
Fr    -8.648803    2.104415    0.307259
C     -6.603455    0.778142   -1.006332
C     -5.341265    0.183206   -1.091884
C      2.835134    1.045152    0.459137
C      4.214692    0.598340    0.151775
C      4.702454    0.672962   -1.161490
C      6.002271    0.248173   -1.452230
N      6.821032   -0.252646   -0.433496
Fr     8.484823   -0.796030   -0.807069
C      6.336823   -0.329108    0.877509
C      5.037119    0.094600    1.170391
H     -4.296108    0.701573    2.113629
H     -6.521911    1.751136    2.255654
H     -7.244297    0.802685   -1.878543
H     -5.016741   -0.240680   -2.034265
H      4.075774    1.058810   -1.956135
H      6.371188    0.309115   -2.468184
H      6.965323   -0.716282    1.669381
H      4.670233    0.029805    2.187375
