35
xyan11@uic.edu
 H  -8.153868 57.38739 4.64181
 C  -9.828148 57.10770 3.29807
 C  -9.836258 55.61773 3.30216
 O -10.663648 55.13403 2.48145
 O  -9.014368 55.12866 4.12535
 F -11.617118 57.06257 1.74078
 H  -8.830378 65.93823 0.85640
 H -11.514928 64.86755 4.07841
 H -11.453578 67.19595 4.86727
 H -10.784248 63.22307 2.55268
 H  -9.136008 61.42717 0.00000
 H -10.654258 61.59872 0.91198
 H  -7.975418 61.30571 2.20438
 H -10.902898 59.39540 1.03754
 H  -7.629638 59.64230 3.83815
 C -10.103588 67.87541 3.31791
 C  -9.382168 67.48152 2.19782
 C  -9.403968 66.16562 1.74585
 C -10.153488 65.19996 2.41963
 C -10.909578 65.58761 3.53129
 C -10.878808 66.91512 3.98453
 C  -9.300748 63.24129 1.13519
 C  -9.569688 61.74750 0.95339
 C  -9.204698 59.70844 2.35553
 C -10.270168 58.98563 1.81701
 C -10.568658 57.70331 2.28229
 C  -8.751178 57.81636 3.83825
 C  -8.452348 59.10089 3.37248
 C -10.096048 69.36538 3.31520
 N -10.179878 63.84640 2.02391
 N  -8.954808 61.04380 2.07591
 O  -8.331698 63.77199 0.59687
 O -10.915438 69.87104 4.13895
 O  -9.271578 69.85971 2.48965
 F  -8.633998 68.36869 1.52113
