43
xyan11@uic.edu
 H  -7.414938 51.27413  1.06131
 H  -7.025028 50.41526  2.43353
 H  -7.703058 51.16734  4.43348
 H  -8.293498 50.44725  6.47124
 H  -8.296548 50.46346  8.89574
 H  -7.618608 51.25032 10.95461
 H  -7.952668 51.07015 13.34415
 H -11.301408 53.47192 10.59879
 H -12.082178 53.29165 14.06965
 H -12.641428 53.69448 12.53219
 H -10.251588 54.29533  8.73960
 H -12.133518 54.29011  4.50104
 H -11.240828 53.84796  5.85859
 H -11.964758 53.42161  1.17791
 H -12.451898 54.06994  2.65534
 C  -8.723008 51.54839  2.58853
 C  -9.845668 52.14422  1.97923
 C -10.774618 52.87997  2.75262
 C -10.578558 52.99020  4.15927
 C  -9.478808 52.34399  4.79744
 C  -8.567728 51.64541  3.97822
 C  -9.295328 52.36009  6.27692
 C  -8.706218 51.31165  6.97979
 C  -8.710878 51.32523  8.37829
 C  -9.298408 52.37908  9.08680
 C  -9.440428 52.36133 10.55874
 C  -8.505608 51.71410 11.38367
 C  -8.684758 51.63279 12.76985
 C  -9.801308 52.22087 13.37731
 C -10.767828 52.86476 12.58000
 C -10.551358 52.95049 11.19232
 C  -9.795558 53.41348  8.29591
 C  -9.848438 52.14119  0.48924
 C  -9.798858 52.22357 14.86731
 N  -7.796688 50.75808  1.86162
 N -11.824938 53.61650 13.13119
 N  -9.799638 53.43463  6.93747
 N -11.621908 53.54830  4.95367
 N -12.016358 53.28650  2.19266
 O  -8.978908 51.39701 15.36745
 O -10.617158 53.05193 15.36715
 O -10.676708 51.32118  0.00569
 O  -9.021788 52.95943  0.00000
