50
xyan11@uic.edu
  C 46.482562 51.910094 15.013473
  O 47.594972 51.955274 15.510663
  H 47.337055 47.946142  3.999710
  H 46.862705 48.491302  5.595170
  H 48.503255 48.825792  4.936980
  H 47.411905 49.281042  2.166920
  H 48.363425 50.291612  9.029360
  H 48.634595 51.749712 13.444520
  H 49.910195 52.105412 11.640170
  H 49.239345 52.497122 10.066490
  H 49.526055 50.788522 10.565170
  C 47.438985 48.774392  4.710850
  C 46.928765 50.062812  4.108150
  C 46.917645 50.091572  2.700210
  C 46.297065 51.116852  1.982510
  C 46.462595 51.189442  4.850490
  C 46.607825 51.269512  6.351100
  C 47.702765 50.871592  7.102660
  C 47.587655 50.820712  8.496370
  C 46.571955 51.491822  9.184940
  C 46.599095 51.582932 10.678590
  C 46.481545 51.774002 13.529690
  C 47.710225 51.750882 12.870230
  C 47.787725 51.705822 11.458930
  C 49.185335 51.776402 10.887060
  C 46.295985 50.980762  0.498760
 Cl 49.302495 50.659672  6.482530
  O 47.407685 50.934732  0.000000
  H 45.411566 54.198930  2.003760
  H 43.893516 53.328740  2.389890
  H 44.672456 53.973290  8.146160
  H 44.874276 54.234150  4.172260
  H 45.919286 53.879230  5.510140
  C 44.891896 53.237360  1.945610
  C 45.191916 53.423700  4.831090
  O 45.370824 51.956154 15.512223
  H 44.710207 53.016402  0.893140
  H 44.436427 51.380712 10.865640
  H 44.344267 51.650972 13.278840
  H 44.712497 53.438632  9.803950
  H 43.572617 52.680552  8.663190
  H 44.293607 53.107122  5.371500
  C 45.682477 52.173842  2.676560
  C 45.808367 52.237862  4.103120
  C 45.380017 51.523912 11.392030
  C 45.314127 51.655292 12.783560
  C 45.604887 52.068672  8.347710
  C 44.583187 53.083042  8.781710
  N 45.559207 51.834362  7.000710
  O 45.183537 50.935602  0.001570
