34
xyan11@uic.edu
 H 46.106027 61.517029 0.57922
 H 45.471727 59.385429 0.22168
 H 46.470277 54.730309 0.88782
 C 44.921867 65.944919 1.85418
 C 45.111237 63.138629 1.41901
 C 45.996437 64.040419 0.81520
 C 45.901537 65.419639 1.02521
 C 45.340767 56.557139 0.99555
 C 45.551277 55.196429 1.23515
 C 44.569847 54.438669 1.88394
 C 44.573927 52.949829 1.82517
 C 44.917697 67.433759 1.91295
 N 45.291777 61.755739 1.12973
 N 44.843097 59.480099 1.01260
 O 46.028347 67.936779 1.92617
 F 46.776457 66.235089 0.41214
 F 46.955997 63.571479 0.00000
 F 46.277767 57.232719 0.31019
 O 45.687342 52.453543 1.79904
 H 43.261998 65.426489 3.15353
 H 43.016508 58.875959 1.57429
 H 42.645748 54.520469 2.89416
 H 42.270308 56.884799 2.40836
 C 44.035418 65.060849 2.47994
 C 44.140008 63.682119 2.27093
 C 44.374028 60.753389 1.34413
 C 44.164088 57.199989 1.40692
 C 43.404798 55.064019 2.33697
 C 43.201518 56.425359 2.07984
 N 43.798868 58.509519 1.01144
 O 43.232228 60.887369 1.77646
 O 43.804268 67.930059 1.93907
 F 43.313238 62.917849 2.99117
 O 43.463263 52.446833 1.81194
