47
xyan11@uic.edu
  H -17.137424 52.949808 0.00000
  H -15.814374 52.981468 1.04775
  H -19.380154 53.029908 1.13137
  H -20.358864 50.944518 5.41679
  H -18.861594 50.184898 5.68090
  H -16.893434 51.104668 5.77927
  H -15.689084 50.862648 4.62889
  H -21.388194 50.094228 3.96975
  H -28.065294 54.986078 2.00447
  H -26.215474 55.286648 3.09559
  H -24.676754 54.635898 2.86805
  H -28.221374 49.218038 1.98321
  H -24.774434 49.597768 2.09877
  H -26.187504 48.894188 2.72944
  H -21.267434 53.776458 1.78894
  H -23.199664 49.710398 5.30291
  H -24.781134 50.418358 5.04997
  H -24.179404 49.085798 4.00254
  C -17.492294 52.489408 1.92662
  C -18.880784 52.527788 1.95723
  C -19.605574 51.961478 3.02046
  C -18.843274 51.363548 4.04560
  C -17.435004 51.333628 3.88953
  C -21.093634 51.973538 2.96557
  C -21.876064 50.965038 3.53301
  C -23.289784 51.024618 3.59433
  C -24.001084 51.981658 2.81263
  C -25.508444 52.050438 2.75620
  C -26.303394 50.891478 2.59371
  C -27.711374 50.990198 2.72427
  C -27.636464 53.249018 2.87336
  C -26.222194 53.276028 2.90031
  C -23.189344 52.886878 2.08757
  C -21.797524 52.952078 2.26115
  C -23.915694 50.007768 4.52539
  N -16.800264 53.171008 0.92958
  N -19.357184 50.996968 5.31451
  N -16.763114 51.868948 2.86019
  N -16.659574 50.697368 4.87940
  N -28.383514 52.137938 2.84047
  N -28.352464 54.466388 2.83023
  N -25.595534 54.497888 3.27110
  N -28.469024 49.805918 2.77171
  N -25.783714 49.640098 2.16179
 Cl -23.809294 53.962678 0.86616
  H -29.333055 54.203758 2.75827
  H -29.447045 50.078498 2.77864
