33
xyan11@uic.edu
  H 54.736285 50.489777 0.41826
  H 48.231165 53.917197 0.00000
  H 45.785535 53.798747 0.11177
  H 50.236285 50.367837 1.87547
  H 52.008815 49.239397 2.62715
  H 53.585045 49.978117 2.88125
  H 53.107765 49.361587 1.25705
  C 56.604455 51.312937 0.99353
  C 55.215995 51.316077 0.93531
  C 54.483765 52.352677 1.53699
  C 55.253925 53.347947 2.15734
  C 56.646225 53.302537 2.08547
  C 52.978995 52.384657 1.52295
  C 52.254245 53.578507 1.23951
  C 50.835895 53.657737 1.37948
  C 50.060735 52.498067 1.57113
  C 48.565375 52.444937 1.58049
  C 47.782115 53.237467 0.71313
  C 46.395535 53.162017 0.75023
  C 46.459085 51.522377 2.34207
  C 47.842625 51.566547 2.40678
  C 50.781055 51.300787 1.74880
  C 52.201545 51.237467 1.80320
  C 52.766735 49.878367 2.15813
  N 57.341855 52.293997 1.53154
  N 45.709535 52.308667 1.53846
  F 57.252965 50.253837 0.49074
  F 54.673845 54.352827 2.83213
  F 57.348325 54.324597 2.59230
  F 48.474085 50.746377 3.25924
  F 45.801095 50.635307 3.09970
 Cl 53.080505 54.961577 0.54412
 Cl 50.096325 55.238617 1.41876
