32
xyan11@uic.edu
 H 42.410596 51.199677 13.63903
 H 41.223826 50.973777  2.39290
 H 41.121096 51.386437  4.81827
 C 42.530166 52.012297 12.92137
 C 42.516706 52.498697  7.12519
 C 42.396396 53.141257  4.75165
 C 41.779706 51.812887  2.81422
 C 41.723756 52.047617  4.19715
 N 42.466346 53.057417  8.39524
 N 42.343346 53.444007  6.12953
 O 41.430016 52.397837  0.00000
 O 41.479366 53.586887 15.31731
 H 42.920945 55.387717 12.69356
 H 42.566915 54.388397  6.41892
 C 42.594255 53.344707 13.34356
 C 42.629865 51.710947 11.56207
 C 42.806945 52.699607 10.58468
 C 42.895785 54.022777 11.03813
 C 42.796835 54.352337 12.39655
 C 43.126425 53.979167  3.90827
 C 43.222025 53.717427  2.54320
 C 42.539385 52.645107  1.97613
 C 42.541415 52.461837  0.49746
 N 42.961735 52.284077  9.24483
 O 42.729625 51.313487  6.87628
 O 43.654155 52.402957  0.00240
 F 43.103845 55.026477 10.17298
 F 43.795165 55.019607  4.42977
 F 43.989195 54.513387  1.78070
 F 42.559635 50.421837 11.19600
 C 42.592155 53.527987 14.82225
 O 43.703515 53.592007 15.31971
