21

C      0.994485    1.078221   -0.296693
C     -0.338074    1.075137   -0.727444
C     -0.825966    2.200646   -1.488337
N     -1.234682    3.139981   -2.123614
Fr    -1.833475    4.513038   -3.052059
C     -1.176153   -0.015514   -0.415321
C     -2.613235   -0.044941   -0.865839
C     -0.657688   -1.088525    0.327318
C      0.675531   -1.084568    0.757779
C      1.161953   -2.209839    1.518009
N      1.566989   -3.150977    2.153176
Fr     2.159582   -4.526750    3.081644
C      1.511784    0.006782    0.444823
N      2.881642    0.045023    0.868841
H      1.635099    1.918721   -0.538828
H     -3.156785    0.825021   -0.440792
H     -3.129244   -0.971636   -0.535934
H     -2.659148    0.002104   -1.974267
H     -1.293682   -1.931914    0.572472
H      3.488814    0.860461    0.629302
H      3.310035   -0.729181    1.422329
