37

C      0.668103    1.203568   -0.488988
C     -0.732920    1.128634   -0.509704
C     -1.516754    2.316676   -1.004728
C     -0.589997   -1.135864    0.367349
C      0.809564   -1.070585    0.359384
N      1.560510   -2.233104    0.736833
H      1.158695    2.116426   -0.807917
H     -0.901593    2.946096   -1.682662
H     -2.408475    1.988819   -1.579222
H     -1.838499    2.937223   -0.143041
H     -1.076416   -2.045633    0.700089
H      2.593086   -2.293023    0.601157
H      1.074032   -3.085586    1.093938
C      1.447287    0.121355   -0.051556
C      2.918977    0.274819   -0.015714
C      3.619701    0.132866    1.193841
C      5.007332    0.299863    1.228403
N      5.705040    0.618676    0.058423
Fr     7.481395    0.832621    0.104463
C      5.011675    0.774441   -1.146729
C      3.623973    0.607776   -1.184119
C     -1.370434   -0.045147   -0.044608
C     -2.844967   -0.168015    0.010564
C     -3.603605    0.701277    0.811891
C     -4.994681    0.573726    0.868700
N     -5.638215   -0.427325    0.133150
Fr    -7.419093   -0.589479    0.207375
C     -4.887288   -1.303832   -0.657526
C     -3.496026   -1.178361   -0.716073
H      3.090428   -0.103042    2.108985
H      5.537655    0.184106    2.165105
H      5.545788    1.024797   -2.054539
H      3.099804    0.730481   -2.124053
H     -3.117724    1.469374    1.400399
H     -5.569745    1.250105    1.488270
H     -5.379358   -2.082608   -1.226242
H     -2.926796   -1.862264   -1.333759
