
     RDKit          3D

 20 20  0  0  0  0  0  0  0  0999 V2000
   -7.8864    0.3857   -0.4409 O   0  0  0  0  0  0  0  0  0  0  0  0
   -7.1363   -0.5916   -0.7048 C   0  0  0  0  0  0  0  0  0  0  0  0
   -7.7081   -1.7805   -1.1432 O   0  0  0  0  0  1  0  0  0  0  0  0
   -5.6691   -0.4771   -0.5511 C   0  0  0  0  0  0  0  0  0  0  0  0
   -5.0861    0.7227   -0.1089 C   0  0  0  0  0  0  0  0  0  0  0  0
   -3.7001    0.8263    0.0353 C   0  0  0  0  0  0  0  0  0  0  0  0
   -2.8685   -0.2662   -0.2592 C   0  0  0  0  0  0  0  0  0  0  0  0
   -3.4498   -1.4683   -0.7025 C   0  0  0  0  0  0  0  0  0  0  0  0
   -2.6787   -2.5531   -0.9698 F   0  0  0  0  0  0  0  0  0  0  0  0
   -4.8374   -1.5704   -0.8453 C   0  0  0  0  0  0  0  0  0  0  0  0
    7.8986   -0.3971    0.2893 O   0  0  0  0  0  0  0  0  0  0  0  0
    7.1503    0.5517    0.6455 C   0  0  0  0  0  0  0  0  0  0  0  0
    7.7264    1.7053    1.1653 O   0  0  0  0  0  1  0  0  0  0  0  0
    5.6807    0.4415    0.5135 C   0  0  0  0  0  0  0  0  0  0  0  0
    5.0934   -0.7220   -0.0116 C   0  0  0  0  0  0  0  0  0  0  0  0
    3.7052   -0.8219   -0.1349 C   0  0  0  0  0  0  0  0  0  0  0  0
    2.8737    0.2367    0.2673 C   0  0  0  0  0  0  0  0  0  0  0  0
    3.4610    1.4055    0.7882 C   0  0  0  0  0  0  0  0  0  0  0  0
    2.6952    2.4674    1.1465 F   0  0  0  0  0  0  0  0  0  0  0  0
    4.8510    1.5034    0.9096 C   0  0  0  0  0  0  0  0  0  0  0  0
  1  2  2  0
  2  3  1  0
  2  4  1  0
  4  5  4  0
  5  6  4  0
  6  7  4  0
  7  8  4  0
  8  9  1  0
  8 10  4  0
 10  4  4  0
 11 12  2  0
 12 13  1  0
 12 14  1  0
 14 15  4  0
 15 16  4  0
 16 17  4  0
 17 18  4  0
 18 19  1  0
 18 20  4  0
 20 14  4  0
M  CHG  2   3  -1  13  -1
M  END
$$$$

     RDKit          3D

 23 23  0  0  0  0  0  0  0  0999 V2000
    7.8656    0.8911   -0.5960 O   0  0  0  0  0  0  0  0  0  0  0  0
    7.1840    0.4157    0.3505 C   0  0  0  0  0  0  0  0  0  0  0  0
    7.8437   -0.0453    1.4843 O   0  0  0  0  0  1  0  0  0  0  0  0
    5.7050    0.3461    0.2644 C   0  0  0  0  0  0  0  0  0  0  0  0
    4.9706   -0.1864    1.3379 C   0  0  0  0  0  0  0  0  0  0  0  0
    3.5766   -0.2631    1.2825 C   0  0  0  0  0  0  0  0  0  0  0  0
    2.9004   -0.7651    2.3473 F   0  0  0  0  0  0  0  0  0  0  0  0
    2.8853    0.1966    0.1492 C   0  0  0  0  0  0  0  0  0  0  0  0
    3.6136    0.7258   -0.9304 C   0  0  0  0  0  0  0  0  0  0  0  0
    2.9730    1.1438   -2.0524 F   0  0  0  0  0  0  0  0  0  0  0  0
    5.0100    0.8018   -0.8751 C   0  0  0  0  0  0  0  0  0  0  0  0
    5.6756    1.3156   -1.9409 F   0  0  0  0  0  0  0  0  0  0  0  0
   -7.8473   -1.0783    0.5170 O   0  0  0  0  0  0  0  0  0  0  0  0
   -7.1686   -0.5064   -0.3767 C   0  0  0  0  0  0  0  0  0  0  0  0
   -7.8279    0.0308   -1.4766 O   0  0  0  0  0  1  0  0  0  0  0  0
   -5.6932   -0.4045   -0.2647 C   0  0  0  0  0  0  0  0  0  0  0  0
   -4.9620    0.2367   -1.2793 C   0  0  0  0  0  0  0  0  0  0  0  0
   -3.5722    0.3451   -1.1962 C   0  0  0  0  0  0  0  0  0  0  0  0
   -2.8801   -0.1848   -0.0970 C   0  0  0  0  0  0  0  0  0  0  0  0
   -3.6048   -0.8281    0.9221 C   0  0  0  0  0  0  0  0  0  0  0  0
   -2.9660   -1.3264    2.0119 F   0  0  0  0  0  0  0  0  0  0  0  0
   -4.9982   -0.9370    0.8413 C   0  0  0  0  0  0  0  0  0  0  0  0
   -5.6609   -1.5595    1.8495 F   0  0  0  0  0  0  0  0  0  0  0  0
  1  2  2  0
  2  3  1  0
  2  4  1  0
  4  5  4  0
  5  6  4  0
  6  7  1  0
  6  8  4  0
  8  9  4  0
  9 10  1  0
  9 11  4  0
 11 12  1  0
 11  4  4  0
 13 14  2  0
 14 15  1  0
 14 16  1  0
 16 17  4  0
 17 18  4  0
 18 19  4  0
 19 20  4  0
 20 21  1  0
 20 22  4  0
 22 23  1  0
 22 16  4  0
M  CHG  2   3  -1  15  -1
M  END
$$$$

     RDKit          3D

 27 27  0  0  0  0  0  0  0  0999 V2000
   -1.0739   -3.9064   -0.7752 C   0  0  0  0  0  0  0  0  0  0  0  0
   -1.9196   -2.6529   -0.5742 C   0  0  0  0  0  0  0  0  0  0  0  0
   -2.1420   -2.3688    0.9157 C   0  0  0  0  0  0  0  0  0  0  0  0
   -2.9656   -1.1116    1.1085 C   0  0  0  0  0  0  0  0  0  0  0  0
   -4.3563   -1.2397    1.2513 C   0  0  0  0  0  0  0  0  0  0  0  0
   -5.1781   -0.1114    1.3818 C   0  0  0  0  0  0  0  0  0  0  0  0
   -6.6437   -0.2595    1.5322 C   0  0  0  0  0  0  0  0  0  0  0  0
   -7.1744   -1.4021    1.5496 O   0  0  0  0  0  0  0  0  0  0  0  0
   -7.4565    0.8615    1.6570 O   0  0  0  0  0  1  0  0  0  0  0  0
   -4.5960    1.1626    1.3615 C   0  0  0  0  0  0  0  0  0  0  0  0
   -3.2095    1.3245    1.2144 C   0  0  0  0  0  0  0  0  0  0  0  0
   -2.6524    2.7321    1.1786 C   0  0  0  0  0  0  0  0  0  0  0  0
   -2.7668    3.3261   -0.2301 C   0  0  0  0  0  0  0  0  0  0  0  0
   -2.1599    4.7244   -0.2899 C   0  0  0  0  0  0  0  0  0  0  0  0
   -2.3844    0.1810    1.0727 C   0  0  0  0  0  0  0  0  0  0  0  0
    2.0298   -2.8035   -2.5675 C   0  0  0  0  0  0  0  0  0  0  0  0
    2.7667   -2.0326   -1.4764 C   0  0  0  0  0  0  0  0  0  0  0  0
    3.1445   -0.6239   -1.9522 C   0  0  0  0  0  0  0  0  0  0  0  0
    3.8681    0.1461   -0.8645 C   0  0  0  0  0  0  0  0  0  0  0  0
    5.2671    0.2736   -0.9603 C   0  0  0  0  0  0  0  0  0  0  0  0
    6.0116    0.9076    0.0479 C   0  0  0  0  0  0  0  0  0  0  0  0
    7.4814    1.0407   -0.0677 C   0  0  0  0  0  0  0  0  0  0  0  0
    8.0885    0.5931   -1.0769 O   0  0  0  0  0  0  0  0  0  0  0  0
    8.2136    1.6631    0.9369 O   0  0  0  0  0  1  0  0  0  0  0  0
    5.3449    1.4059    1.1744 C   0  0  0  0  0  0  0  0  0  0  0  0
    3.9616    1.2774    1.2925 C   0  0  0  0  0  0  0  0  0  0  0  0
    3.2050    0.6617    0.2826 C   0  0  0  0  0  0  0  0  0  0  0  0
  1  2  1  0
  2  3  1  0
  3  4  1  0
  4  5  4  0
  5  6  4  0
  6  7  1  0
  7  8  2  0
  7  9  1  0
  6 10  4  0
 10 11  4  0
 11 12  1  0
 12 13  1  0
 13 14  1  0
 11 15  4  0
 15  4  4  0
 16 17  1  0
 17 18  1  0
 18 19  1  0
 19 20  4  0
 20 21  4  0
 21 22  1  0
 22 23  2  0
 22 24  1  0
 21 25  4  0
 25 26  4  0
 26 27  4  0
 27 19  4  0
M  CHG  2   9  -1  24  -1
M  END
$$$$

     RDKit          3D

 18 18  0  0  0  0  0  0  0  0999 V2000
   -4.4764    0.4152    1.4797 Cl  0  0  0  0  0  0  0  0  0  0  0  0
   -3.1354    0.5993    0.3605 C   0  0  0  0  0  0  0  0  0  0  0  0
   -2.8397    1.8415   -0.1012 N   0  0  0  0  0  0  0  0  0  0  0  0
   -1.8224    2.0675   -0.9716 C   0  0  0  0  0  0  0  0  0  0  0  0
   -1.5342    3.7110   -1.5202 Cl  0  0  0  0  0  0  0  0  0  0  0  0
   -1.0319    0.9980   -1.4185 C   0  0  0  0  0  0  0  0  0  0  0  0
    0.2406    1.2667   -2.6068 Cl  0  0  0  0  0  0  0  0  0  0  0  0
   -1.2986   -0.2969   -0.9397 C   0  0  0  0  0  0  0  0  0  0  0  0
   -2.3736   -0.5028   -0.0561 C   0  0  0  0  0  0  0  0  0  0  0  0
   -2.7457   -2.1209    0.5387 Cl  0  0  0  0  0  0  0  0  0  0  0  0
    4.4640    1.7838    0.8919 Cl  0  0  0  0  0  0  0  0  0  0  0  0
    3.0369    0.7722    1.0515 C   0  0  0  0  0  0  0  0  0  0  0  0
    2.4005    0.7314    2.2518 N   0  0  0  0  0  0  0  0  0  0  0  0
    1.2923   -0.0269    2.4510 C   0  0  0  0  0  0  0  0  0  0  0  0
    0.7725   -0.7917    1.4081 C   0  0  0  0  0  0  0  0  0  0  0  0
    1.3913   -0.7661    0.1515 C   0  0  0  0  0  0  0  0  0  0  0  0
    2.5492    0.0168   -0.0295 C   0  0  0  0  0  0  0  0  0  0  0  0
    3.3636    0.0820   -1.5924 Cl  0  0  0  0  0  0  0  0  0  0  0  0
  1  2  1  0
  2  3  4  0
  3  4  4  0
  4  5  1  0
  4  6  4  0
  6  7  1  0
  6  8  4  0
  8  9  4  0
  9 10  1  0
  9  2  4  0
 11 12  1  0
 12 13  4  0
 13 14  4  0
 14 15  4  0
 15 16  4  0
 16 17  4  0
 17 18  1  0
 17 12  4  0
M  END
